!- Windows Line endings 

Version,
    23.2;                     !- Version Identifier

SimulationControl,
    Yes,                      !- Do Zone Sizing Calculation
    Yes,                      !- Do System Sizing Calculation
    No,                       !- Do Plant Sizing Calculation
    No,                       !- Run Simulation for Sizing Periods
    Yes,                      !- Run Simulation for Weather File Run Periods
    No,                       !- Do HVAC Sizing Simulation for Sizing Periods
    1;                        !- Maximum Number of HVAC Sizing Simulation Passes

Building,
    Building 1,               !- Name
    ,                         !- North Axis
    ,                         !- Terrain
    ,                         !- Loads Convergence Tolerance Value
    ,                         !- Temperature Convergence Tolerance Value
    ,                         !- Solar Distribution
    ,                         !- Maximum Number of Warmup Days
    ;                         !- Minimum Number of Warmup Days

ShadowCalculation,
    PolygonClipping,          !- Shading Calculation Method
    Periodic,                 !- Shading Calculation Update Frequency Method
    20,                       !- Shading Calculation Update Frequency
    15000;                    !- Maximum Figures in Shadow Overlap Calculations

HeatBalanceAlgorithm,
    ConductionTransferFunction,    !- Algorithm
    200;                      !- Surface Temperature Upper Limit

Timestep,
    1;                        !- Number of Timesteps per Hour

Site:Location,
    WELLINGTON_NZL Design_Conditions,    !- Name
    -41.3,                    !- Latitude
    174.78,                   !- Longitude
    12,                       !- Time Zone
    67;                       !- Elevation

SizingPeriod:DesignDay,
    WELLINGTON Ann Clg .4% Condns WB=>MDB,    !- Name
    2,                        !- Month
    21,                       !- Day of Month
    SummerDesignDay,          !- Day Type
    22,                       !- Maximum DryBulb Temperature
    6,                        !- Daily DryBulb Temperature Range
    DefaultMultipliers,       !- DryBulb Temperature Range Modifier Type
    ,                         !- DryBulb Temperature Range Modifier Day Schedule Name
    Wetbulb,                  !- Humidity Condition Type
    19.3,                     !- Wetbulb or DewPoint at Maximum DryBulb
    ,                         !- Humidity Condition Day Schedule Name
    ,                         !- Humidity Ratio at Maximum DryBulb
    ,                         !- Enthalpy at Maximum DryBulb
    ,                         !- Daily WetBulb Temperature Range
    100523,                   !- Barometric Pressure
    8.1,                      !- Wind Speed
    0,                        !- Wind Direction
    No,                       !- Rain Indicator
    No,                       !- Snow Indicator
    No,                       !- Daylight Saving Time Indicator
    ASHRAETau,                !- Solar Model Indicator
    ,                         !- Beam Solar Day Schedule Name
    ,                         !- Diffuse Solar Day Schedule Name
    0.344,                    !- ASHRAE Clear Sky Optical Depth for Beam Irradiance taub
    2.573;                    !- ASHRAE Clear Sky Optical Depth for Diffuse Irradiance taud

SizingPeriod:DesignDay,
    WELLINGTON Ann Htg 99.6% Condns DB,    !- Name
    7,                        !- Month
    21,                       !- Day of Month
    WinterDesignDay,          !- Day Type
    1.6,                      !- Maximum DryBulb Temperature
    0,                        !- Daily DryBulb Temperature Range
    DefaultMultipliers,       !- DryBulb Temperature Range Modifier Type
    ,                         !- DryBulb Temperature Range Modifier Day Schedule Name
    Wetbulb,                  !- Humidity Condition Type
    1.6,                      !- Wetbulb or DewPoint at Maximum DryBulb
    ,                         !- Humidity Condition Day Schedule Name
    ,                         !- Humidity Ratio at Maximum DryBulb
    ,                         !- Enthalpy at Maximum DryBulb
    ,                         !- Daily WetBulb Temperature Range
    100523,                   !- Barometric Pressure
    6.4,                      !- Wind Speed
    10,                       !- Wind Direction
    No,                       !- Rain Indicator
    No,                       !- Snow Indicator
    No,                       !- Daylight Saving Time Indicator
    ASHRAEClearSky,           !- Solar Model Indicator
    ,                         !- Beam Solar Day Schedule Name
    ,                         !- Diffuse Solar Day Schedule Name
    ,                         !- ASHRAE Clear Sky Optical Depth for Beam Irradiance taub
    ,                         !- ASHRAE Clear Sky Optical Depth for Diffuse Irradiance taud
    0;                        !- Sky Clearness

RunPeriod,
    Run Period 1,             !- Name
    1,                        !- Begin Month
    1,                        !- Begin Day of Month
    2018,                     !- Begin Year
    9,                        !- End Month
    30,                       !- End Day of Month
    2018,                     !- End Year
    Monday,                   !- Day of Week for Start Day
    No,                       !- Use Weather File Holidays and Special Days
    No,                       !- Use Weather File Daylight Saving Period
    No,                       !- Apply Weekend Holiday Rule
    Yes,                      !- Use Weather File Rain Indicators
    Yes;                      !- Use Weather File Snow Indicators

RunPeriodControl:DaylightSavingTime,
    9/30,                     !- Start Date
    4/7;                      !- End Date

ScheduleTypeLimits,
    Fraction,                 !- Name
    0,                        !- Lower Limit Value
    1,                        !- Upper Limit Value
    CONTINUOUS;               !- Numeric Type

ScheduleTypeLimits,
    Thermal Zone 1 Thermostat Schedule Type Limits,    !- Name
    0,                        !- Lower Limit Value
    4,                        !- Upper Limit Value
    DISCRETE;                 !- Numeric Type

ScheduleTypeLimits,
    Temperature 42,           !- Name
    ,                         !- Lower Limit Value
    ,                         !- Upper Limit Value
    Continuous,               !- Numeric Type
    temperature;              !- Unit Type

ScheduleTypeLimits,
    Temperature 35,           !- Name
    ,                         !- Lower Limit Value
    ,                         !- Upper Limit Value
    Continuous,               !- Numeric Type
    temperature;              !- Unit Type

ScheduleTypeLimits,
    Thermal Zone 2 Thermostat Schedule Type Limits,    !- Name
    0,                        !- Lower Limit Value
    4,                        !- Upper Limit Value
    DISCRETE;                 !- Numeric Type

ScheduleTypeLimits,
    ActivityLevel,            !- Name
    0,                        !- Lower Limit Value
    ,                         !- Upper Limit Value
    Continuous,               !- Numeric Type
    activitylevel;            !- Unit Type

ScheduleTypeLimits,
    ActivityLevel 12,         !- Name
    0,                        !- Lower Limit Value
    ,                         !- Upper Limit Value
    Continuous,               !- Numeric Type
    activitylevel;            !- Unit Type

ScheduleTypeLimits,
    ActivityLevel 13,         !- Name
    0,                        !- Lower Limit Value
    ,                         !- Upper Limit Value
    Continuous,               !- Numeric Type
    activitylevel;            !- Unit Type

ScheduleTypeLimits,
    ActivityLevel 3,          !- Name
    0,                        !- Lower Limit Value
    ,                         !- Upper Limit Value
    Continuous,               !- Numeric Type
    activitylevel;            !- Unit Type

ScheduleTypeLimits,
    ActivityLevel 5,          !- Name
    0,                        !- Lower Limit Value
    ,                         !- Upper Limit Value
    Continuous,               !- Numeric Type
    activitylevel;            !- Unit Type

ScheduleTypeLimits,
    Capacity,                 !- Name
    0,                        !- Lower Limit Value
    ,                         !- Upper Limit Value
    Continuous,               !- Numeric Type
    capacity;                 !- Unit Type

ScheduleTypeLimits,
    Any Number;               !- Name

ScheduleTypeLimits,
    DeltaTemperature,         !- Name
    ,                         !- Lower Limit Value
    ,                         !- Upper Limit Value
    Continuous,               !- Numeric Type
    deltatemperature;         !- Unit Type

ScheduleTypeLimits,
    Dimensionless,            !- Name
    ,                         !- Lower Limit Value
    ,                         !- Upper Limit Value
    Continuous;               !- Numeric Type

ScheduleTypeLimits,
    Dimensionless 1,          !- Name
    -1,                       !- Lower Limit Value
    1,                        !- Upper Limit Value
    Continuous;               !- Numeric Type

ScheduleTypeLimits,
    Dimensionless 2,          !- Name
    0.1,                      !- Lower Limit Value
    1000,                     !- Upper Limit Value
    Continuous;               !- Numeric Type

ScheduleTypeLimits,
    Dimensionless 3,          !- Name
    0,                        !- Lower Limit Value
    1,                        !- Upper Limit Value
    Continuous,               !- Numeric Type
    dimensionless;            !- Unit Type

ScheduleTypeLimits,
    Fractional,               !- Name
    0,                        !- Lower Limit Value
    1,                        !- Upper Limit Value
    Continuous;               !- Numeric Type

ScheduleTypeLimits,
    OnOff,                    !- Name
    0,                        !- Lower Limit Value
    1,                        !- Upper Limit Value
    Discrete,                 !- Numeric Type
    availability;             !- Unit Type

ScheduleTypeLimits,
    OnOff 1,                  !- Name
    0,                        !- Lower Limit Value
    1,                        !- Upper Limit Value
    Discrete,                 !- Numeric Type
    availability;             !- Unit Type

ScheduleTypeLimits,
    OnOff hvac_library,       !- Name
    0,                        !- Lower Limit Value
    1,                        !- Upper Limit Value
    Discrete,                 !- Numeric Type
    availability;             !- Unit Type

ScheduleTypeLimits,
    Percent,                  !- Name
    0,                        !- Lower Limit Value
    100,                      !- Upper Limit Value
    Continuous,               !- Numeric Type
    percent;                  !- Unit Type

ScheduleTypeLimits,
    Temperature,              !- Name
    0,                        !- Lower Limit Value
    100,                      !- Upper Limit Value
    Continuous,               !- Numeric Type
    temperature;              !- Unit Type

ScheduleTypeLimits,
    Temperature 10,           !- Name
    ,                         !- Lower Limit Value
    ,                         !- Upper Limit Value
    Continuous,               !- Numeric Type
    temperature;              !- Unit Type

ScheduleTypeLimits,
    Temperature 11,           !- Name
    ,                         !- Lower Limit Value
    ,                         !- Upper Limit Value
    Continuous,               !- Numeric Type
    temperature;              !- Unit Type

ScheduleTypeLimits,
    Temperature 12,           !- Name
    ,                         !- Lower Limit Value
    ,                         !- Upper Limit Value
    Continuous,               !- Numeric Type
    temperature;              !- Unit Type

ScheduleTypeLimits,
    Temperature 17,           !- Name
    ,                         !- Lower Limit Value
    ,                         !- Upper Limit Value
    Continuous,               !- Numeric Type
    temperature;              !- Unit Type

ScheduleTypeLimits,
    Temperature 2,            !- Name
    ,                         !- Lower Limit Value
    ,                         !- Upper Limit Value
    Continuous,               !- Numeric Type
    temperature;              !- Unit Type

ScheduleTypeLimits,
    Temperature 3,            !- Name
    ,                         !- Lower Limit Value
    ,                         !- Upper Limit Value
    Continuous,               !- Numeric Type
    temperature;              !- Unit Type

ScheduleTypeLimits,
    Temperature 36,           !- Name
    ,                         !- Lower Limit Value
    ,                         !- Upper Limit Value
    Continuous,               !- Numeric Type
    temperature;              !- Unit Type

ScheduleTypeLimits,
    Temperature 37,           !- Name
    ,                         !- Lower Limit Value
    ,                         !- Upper Limit Value
    Continuous,               !- Numeric Type
    temperature;              !- Unit Type

ScheduleTypeLimits,
    Temperature 38,           !- Name
    ,                         !- Lower Limit Value
    ,                         !- Upper Limit Value
    Continuous,               !- Numeric Type
    temperature;              !- Unit Type

ScheduleTypeLimits,
    Temperature 4,            !- Name
    ,                         !- Lower Limit Value
    ,                         !- Upper Limit Value
    Continuous,               !- Numeric Type
    temperature;              !- Unit Type

ScheduleTypeLimits,
    Temperature 49,           !- Name
    ,                         !- Lower Limit Value
    ,                         !- Upper Limit Value
    Continuous,               !- Numeric Type
    temperature;              !- Unit Type

ScheduleTypeLimits,
    Temperature 5,            !- Name
    ,                         !- Lower Limit Value
    ,                         !- Upper Limit Value
    Continuous,               !- Numeric Type
    temperature;              !- Unit Type

ScheduleTypeLimits,
    Temperature 50,           !- Name
    ,                         !- Lower Limit Value
    ,                         !- Upper Limit Value
    Continuous,               !- Numeric Type
    temperature;              !- Unit Type

ScheduleTypeLimits,
    Temperature 51,           !- Name
    ,                         !- Lower Limit Value
    ,                         !- Upper Limit Value
    Continuous,               !- Numeric Type
    temperature;              !- Unit Type

ScheduleTypeLimits,
    Temperature 8,            !- Name
    ,                         !- Lower Limit Value
    ,                         !- Upper Limit Value
    Continuous,               !- Numeric Type
    temperature;              !- Unit Type

ScheduleTypeLimits,
    Temperature 9,            !- Name
    ,                         !- Lower Limit Value
    ,                         !- Upper Limit Value
    Continuous,               !- Numeric Type
    temperature;              !- Unit Type

ScheduleTypeLimits,
    Velocity,                 !- Name
    0,                        !- Lower Limit Value
    ,                         !- Upper Limit Value
    Continuous,               !- Numeric Type
    velocity;                 !- Unit Type

Schedule:Day:Interval,
    SmallHotel GuestRoom Light Default Schedule,    !- Name
    Fraction,                 !- Schedule Type Limits Name
    No,                       !- Interpolate to Timestep
    01:00,                    !- Time 1
    0.22,                     !- Value Until Time 1
    02:00,                    !- Time 2
    0.17,                     !- Value Until Time 2
    05:00,                    !- Time 3
    0.11,                     !- Value Until Time 3
    06:00,                    !- Time 4
    0.22,                     !- Value Until Time 4
    07:00,                    !- Time 5
    0.44,                     !- Value Until Time 5
    08:00,                    !- Time 6
    0.56,                     !- Value Until Time 6
    10:00,                    !- Time 7
    0.44,                     !- Value Until Time 7
    18:00,                    !- Time 8
    0.28,                     !- Value Until Time 8
    19:00,                    !- Time 9
    0.67,                     !- Value Until Time 9
    20:00,                    !- Time 10
    0.89,                     !- Value Until Time 10
    21:00,                    !- Time 11
    1,                        !- Value Until Time 11
    22:00,                    !- Time 12
    0.89,                     !- Value Until Time 12
    23:00,                    !- Time 13
    0.67,                     !- Value Until Time 13
    24:00,                    !- Time 14
    0.33;                     !- Value Until Time 14

Schedule:Day:Interval,
    SmallHotel GuestRoom Light Rule 1 Day Schedule,    !- Name
    Fraction,                 !- Schedule Type Limits Name
    No,                       !- Interpolate to Timestep
    02:00,                    !- Time 1
    0.26,                     !- Value Until Time 1
    06:00,                    !- Time 2
    0.11,                     !- Value Until Time 2
    08:00,                    !- Time 3
    0.41,                     !- Value Until Time 3
    10:00,                    !- Time 4
    0.56,                     !- Value Until Time 4
    11:00,                    !- Time 5
    0.41,                     !- Value Until Time 5
    18:00,                    !- Time 6
    0.33,                     !- Value Until Time 6
    19:00,                    !- Time 7
    0.85,                     !- Value Until Time 7
    22:00,                    !- Time 8
    1,                        !- Value Until Time 8
    23:00,                    !- Time 9
    0.85,                     !- Value Until Time 9
    24:00,                    !- Time 10
    0.41;                     !- Value Until Time 10

Schedule:Day:Interval,
    SmallHotel GuestRoom Light Summer Design Day,    !- Name
    Fraction,                 !- Schedule Type Limits Name
    No,                       !- Interpolate to Timestep
    24:00,                    !- Time 1
    1;                        !- Value Until Time 1

Schedule:Day:Interval,
    SmallHotel GuestRoom Light Winter Design Day,    !- Name
    Fraction,                 !- Schedule Type Limits Name
    No,                       !- Interpolate to Timestep
    24:00,                    !- Time 1
    0;                        !- Value Until Time 1

Schedule:Day:Interval,
    SmallHotel HtgSetp Default Schedule,    !- Name
    Temperature 42,           !- Schedule Type Limits Name
    No,                       !- Interpolate to Timestep
    24:00,                    !- Time 1
    19;                       !- Value Until Time 1

Schedule:Day:Interval,
    SmallHotel HtgSetp Summer Design Day,    !- Name
    Temperature 42,           !- Schedule Type Limits Name
    No,                       !- Interpolate to Timestep
    24:00,                    !- Time 1
    19;                       !- Value Until Time 1

Schedule:Day:Interval,
    SmallHotel HtgSetp Winter Design Day,    !- Name
    Temperature 42,           !- Schedule Type Limits Name
    No,                       !- Interpolate to Timestep
    24:00,                    !- Time 1
    19;                       !- Value Until Time 1

Schedule:Day:Interval,
    SmallHotel ClgSetp Default Schedule,    !- Name
    Temperature 35,           !- Schedule Type Limits Name
    No,                       !- Interpolate to Timestep
    24:00,                    !- Time 1
    24;                       !- Value Until Time 1

Schedule:Day:Interval,
    SmallHotel ClgSetp Summer Design Day,    !- Name
    Temperature 35,           !- Schedule Type Limits Name
    No,                       !- Interpolate to Timestep
    24:00,                    !- Time 1
    24;                       !- Value Until Time 1

Schedule:Day:Interval,
    SmallHotel ClgSetp Winter Design Day,    !- Name
    Temperature 35,           !- Schedule Type Limits Name
    No,                       !- Interpolate to Timestep
    24:00,                    !- Time 1
    24;                       !- Value Until Time 1

Schedule:Day:Interval,
    SmallHotel Bldg Light Default Schedule,    !- Name
    Fraction,                 !- Schedule Type Limits Name
    No,                       !- Interpolate to Timestep
    01:00,                    !- Time 1
    0.2,                      !- Value Until Time 1
    02:00,                    !- Time 2
    0.15,                     !- Value Until Time 2
    05:00,                    !- Time 3
    0.1,                      !- Value Until Time 3
    06:00,                    !- Time 4
    0.2,                      !- Value Until Time 4
    07:00,                    !- Time 5
    0.4,                      !- Value Until Time 5
    08:00,                    !- Time 6
    0.5,                      !- Value Until Time 6
    10:00,                    !- Time 7
    0.4,                      !- Value Until Time 7
    18:00,                    !- Time 8
    0.25,                     !- Value Until Time 8
    19:00,                    !- Time 9
    0.6,                      !- Value Until Time 9
    20:00,                    !- Time 10
    0.8,                      !- Value Until Time 10
    21:00,                    !- Time 11
    0.9,                      !- Value Until Time 11
    22:00,                    !- Time 12
    0.8,                      !- Value Until Time 12
    23:00,                    !- Time 13
    0.6,                      !- Value Until Time 13
    24:00,                    !- Time 14
    0.3;                      !- Value Until Time 14

Schedule:Day:Interval,
    SmallHotel Bldg Light Rule 2 Day Schedule,    !- Name
    Fraction,                 !- Schedule Type Limits Name
    No,                       !- Interpolate to Timestep
    02:00,                    !- Time 1
    0.2,                      !- Value Until Time 1
    06:00,                    !- Time 2
    0.1,                      !- Value Until Time 2
    08:00,                    !- Time 3
    0.3,                      !- Value Until Time 3
    10:00,                    !- Time 4
    0.4,                      !- Value Until Time 4
    11:00,                    !- Time 5
    0.3,                      !- Value Until Time 5
    18:00,                    !- Time 6
    0.25,                     !- Value Until Time 6
    19:00,                    !- Time 7
    0.6,                      !- Value Until Time 7
    22:00,                    !- Time 8
    0.7,                      !- Value Until Time 8
    23:00,                    !- Time 9
    0.6,                      !- Value Until Time 9
    24:00,                    !- Time 10
    0.3;                      !- Value Until Time 10

Schedule:Day:Interval,
    SmallHotel Bldg Light Rule 1 Day Schedule,    !- Name
    Fraction,                 !- Schedule Type Limits Name
    No,                       !- Interpolate to Timestep
    02:00,                    !- Time 1
    0.3,                      !- Value Until Time 1
    06:00,                    !- Time 2
    0.2,                      !- Value Until Time 2
    07:00,                    !- Time 3
    0.3,                      !- Value Until Time 3
    09:00,                    !- Time 4
    0.4,                      !- Value Until Time 4
    13:00,                    !- Time 5
    0.3,                      !- Value Until Time 5
    18:00,                    !- Time 6
    0.2,                      !- Value Until Time 6
    19:00,                    !- Time 7
    0.5,                      !- Value Until Time 7
    20:00,                    !- Time 8
    0.7,                      !- Value Until Time 8
    21:00,                    !- Time 9
    0.8,                      !- Value Until Time 9
    22:00,                    !- Time 10
    0.6,                      !- Value Until Time 10
    23:00,                    !- Time 11
    0.5,                      !- Value Until Time 11
    24:00,                    !- Time 12
    0.3;                      !- Value Until Time 12

Schedule:Day:Interval,
    SmallHotel Bldg Light Summer Design Day,    !- Name
    Fraction,                 !- Schedule Type Limits Name
    No,                       !- Interpolate to Timestep
    24:00,                    !- Time 1
    1;                        !- Value Until Time 1

Schedule:Day:Interval,
    SmallHotel Bldg Light Winter Design Day,    !- Name
    Fraction,                 !- Schedule Type Limits Name
    No,                       !- Interpolate to Timestep
    24:00,                    !- Time 1
    0;                        !- Value Until Time 1

Schedule:Day:Interval,
    Chilled Water Temperature Default,    !- Name
    Temperature 51,           !- Schedule Type Limits Name
    No,                       !- Interpolate to Timestep
    24:00,                    !- Time 1
    6.7;                      !- Value Until Time 1

Schedule:Day:Interval,
    Chilled Water Temperature Summer Design Day,    !- Name
    Temperature 51,           !- Schedule Type Limits Name
    No,                       !- Interpolate to Timestep
    24:00,                    !- Time 1
    6.7;                      !- Value Until Time 1

Schedule:Day:Interval,
    Chilled Water Temperature Winter Design Day,    !- Name
    Temperature 51,           !- Schedule Type Limits Name
    No,                       !- Interpolate to Timestep
    24:00,                    !- Time 1
    6.7;                      !- Value Until Time 1

Schedule:Day:Interval,
    Deck Temperature Default,    !- Name
    Temperature 50,           !- Schedule Type Limits Name
    No,                       !- Interpolate to Timestep
    24:00,                    !- Time 1
    12.8;                     !- Value Until Time 1

Schedule:Day:Interval,
    Deck Temperature Summer Design Day,    !- Name
    Temperature 50,           !- Schedule Type Limits Name
    No,                       !- Interpolate to Timestep
    24:00,                    !- Time 1
    12.8;                     !- Value Until Time 1

Schedule:Day:Interval,
    Deck Temperature Winter Design Day,    !- Name
    Temperature 50,           !- Schedule Type Limits Name
    No,                       !- Interpolate to Timestep
    24:00,                    !- Time 1
    12.8;                     !- Value Until Time 1

Schedule:Day:Interval,
    SmallHotel Activity Default Schedule,    !- Name
    ActivityLevel,            !- Schedule Type Limits Name
    Average,                  !- Interpolate to Timestep
    24:00,                    !- Time 1
    120;                      !- Value Until Time 1

Schedule:Day:Interval,
    SmallHotel Activity Summer Design Day,    !- Name
    ActivityLevel,            !- Schedule Type Limits Name
    No,                       !- Interpolate to Timestep
    24:00,                    !- Time 1
    120;                      !- Value Until Time 1

Schedule:Day:Interval,
    SmallHotel Activity Winter Design Day,    !- Name
    ActivityLevel,            !- Schedule Type Limits Name
    No,                       !- Interpolate to Timestep
    24:00,                    !- Time 1
    120;                      !- Value Until Time 1

Schedule:Day:Interval,
    SmallHotel GuestRoom Equip Default Schedule,    !- Name
    Fraction,                 !- Schedule Type Limits Name
    No,                       !- Interpolate to Timestep
    06:00,                    !- Time 1
    0.2,                      !- Value Until Time 1
    07:00,                    !- Time 2
    0.62,                     !- Value Until Time 2
    08:00,                    !- Time 3
    0.9,                      !- Value Until Time 3
    10:00,                    !- Time 4
    0.43,                     !- Value Until Time 4
    17:00,                    !- Time 5
    0.26,                     !- Value Until Time 5
    19:00,                    !- Time 6
    0.51,                     !- Value Until Time 6
    20:00,                    !- Time 7
    0.49,                     !- Value Until Time 7
    21:00,                    !- Time 8
    0.66,                     !- Value Until Time 8
    22:00,                    !- Time 9
    0.7,                      !- Value Until Time 9
    23:00,                    !- Time 10
    0.35,                     !- Value Until Time 10
    24:00,                    !- Time 11
    0.2;                      !- Value Until Time 11

Schedule:Day:Interval,
    SmallHotel GuestRoom Equip Rule 1 Day Schedule,    !- Name
    Fraction,                 !- Schedule Type Limits Name
    No,                       !- Interpolate to Timestep
    06:00,                    !- Time 1
    0.2,                      !- Value Until Time 1
    07:00,                    !- Time 2
    0.3,                      !- Value Until Time 2
    08:00,                    !- Time 3
    0.62,                     !- Value Until Time 3
    09:00,                    !- Time 4
    0.9,                      !- Value Until Time 4
    10:00,                    !- Time 5
    0.62,                     !- Value Until Time 5
    17:00,                    !- Time 6
    0.29,                     !- Value Until Time 6
    18:00,                    !- Time 7
    0.43,                     !- Value Until Time 7
    19:00,                    !- Time 8
    0.51,                     !- Value Until Time 8
    20:00,                    !- Time 9
    0.49,                     !- Value Until Time 9
    21:00,                    !- Time 10
    0.66,                     !- Value Until Time 10
    22:00,                    !- Time 11
    0.7,                      !- Value Until Time 11
    23:00,                    !- Time 12
    0.35,                     !- Value Until Time 12
    24:00,                    !- Time 13
    0.2;                      !- Value Until Time 13

Schedule:Day:Interval,